Version 4
SHEET 1 1416 680
WIRE 944 -192 80 -192
WIRE 992 -176 32 -176
WIRE -144 -144 -336 -144
WIRE 224 -144 -144 -144
WIRE 416 -144 224 -144
WIRE 544 -144 416 -144
WIRE 736 -144 544 -144
WIRE 992 -144 992 -176
WIRE 992 -144 816 -144
WIRE 992 -112 992 -144
WIRE -96 -96 -176 -96
WIRE 80 -96 80 -192
WIRE 176 -96 160 -96
WIRE 192 -96 176 -96
WIRE 288 -96 272 -96
WIRE 416 -96 416 -144
WIRE 640 -96 496 -96
WIRE 880 -96 640 -96
WIRE -144 -64 -144 -144
WIRE 224 -64 224 -144
WIRE 544 -64 544 -144
WIRE -256 -48 -256 -96
WIRE -176 -48 -256 -48
WIRE 176 -48 176 -96
WIRE 192 -48 176 -48
WIRE 496 -48 496 -96
WIRE 512 -48 496 -48
WIRE -96 -32 -96 -96
WIRE -96 -32 -112 -32
WIRE -48 -32 -96 -32
WIRE 288 -32 288 -96
WIRE 288 -32 256 -32
WIRE 320 -32 288 -32
WIRE 848 -32 576 -32
WIRE 944 -32 944 -192
WIRE 992 -32 944 -32
WIRE -256 -16 -256 -48
WIRE -176 -16 -192 -16
WIRE 32 -16 32 -176
WIRE 144 -16 112 -16
WIRE 192 -16 144 -16
WIRE 512 -16 416 -16
WIRE 992 -16 992 -32
WIRE 144 0 144 -16
WIRE -336 16 -336 -144
WIRE 416 16 416 -16
WIRE -144 64 -144 0
WIRE -144 64 -256 64
WIRE 848 64 848 -32
WIRE 944 64 848 64
WIRE 224 80 224 0
WIRE 224 80 144 80
WIRE 848 96 848 64
WIRE 880 96 880 -96
WIRE 992 96 992 80
WIRE 992 96 880 96
WIRE -144 112 -144 64
WIRE 224 112 224 80
WIRE 416 112 416 96
WIRE 544 112 544 0
WIRE 848 112 848 96
WIRE 992 112 992 96
WIRE -336 144 -336 96
WIRE 784 144 720 144
WIRE -192 224 -192 -16
WIRE 640 224 640 -96
WIRE 640 224 -192 224
WIRE 848 224 848 192
WIRE 848 224 720 224
WIRE 992 224 992 192
WIRE 992 224 848 224
WIRE 992 256 992 224
FLAG -336 144 0
FLAG -144 112 0
FLAG 224 112 0
FLAG 544 112 0
FLAG 992 256 0
FLAG 416 112 0
SYMBOL res -272 -32 R0
SYMATTR InstName R1
SYMATTR Value 10k
SYMBOL res -160 -112 R90
WINDOW 0 0 56 VBottom 2
WINDOW 3 32 56 VTop 2
SYMATTR InstName R2
SYMATTR Value 330k
SYMBOL Opamps\\opamp2 -144 -96 R0
SYMATTR InstName U1
SYMATTR Value LM358
SYMATTR SpiceModel LM358
SYMBOL Opamps\\opamp2 224 -96 R0
SYMATTR InstName U2
SYMATTR Value LM358
SYMATTR SpiceModel LM358
SYMBOL voltage -336 0 R0
WINDOW 123 0 0 Left 0
WINDOW 39 24 124 Left 2
SYMATTR InstName V1
SYMATTR Value 9
SYMATTR SpiceLine Rser=0.01
SYMBOL Opamps\\opamp2 544 -96 R0
SYMATTR InstName U3
SYMATTR Value LM358
SYMATTR SpiceModel LM358
SYMBOL res 128 -16 R0
SYMATTR InstName R3
SYMATTR Value 150k
SYMBOL nmos 944 -16 R0
SYMATTR InstName M1
SYMATTR Value IRFZ44N
SYMBOL npn 784 96 R0
SYMATTR InstName Q1
SYMATTR Value 2N3904
SYMBOL res 976 96 R0
SYMATTR InstName R4
SYMATTR Value 0.1
SYMBOL voltage 720 128 R0
WINDOW 3 -196 133 Left 2
WINDOW 123 0 0 Left 0
WINDOW 39 0 0 Left 0
SYMATTR InstName V2
SYMATTR Value PULSE(0 2 30 1ms 1ms 30 60 1)
SYMBOL voltage 992 -128 R0
WINDOW 3 50 -9 Left 2
WINDOW 123 0 0 Left 0
WINDOW 39 42 54 Left 2
SYMATTR InstName Li-ion_Battery
SYMATTR Value 8.4
SYMATTR SpiceLine Rser=0.1
SYMBOL res 128 -32 R90
WINDOW 0 0 56 VBottom 2
WINDOW 3 32 56 VTop 2
SYMATTR InstName R6
SYMATTR Value 470k
SYMBOL res 288 -112 R90
WINDOW 0 0 56 VBottom 2
WINDOW 3 32 56 VTop 2
SYMATTR InstName R7
SYMATTR Value 150k
SYMBOL res 176 -112 R90
WINDOW 0 0 56 VBottom 2
WINDOW 3 32 56 VTop 2
SYMATTR InstName R8
SYMATTR Value 470k
SYMBOL res 400 0 R0
SYMATTR InstName R9
SYMATTR Value 556.42
SYMBOL res 400 -112 R0
SYMATTR InstName R10
SYMATTR Value 100k
SYMBOL res 832 -160 R90
WINDOW 0 0 56 VBottom 2
WINDOW 3 32 56 VTop 2
SYMATTR InstName R5
SYMATTR Value 0.5
TEXT -232 184 Left 2 !.include LM358.sub
TEXT -64 -64 Left 2 ;Vout1
TEXT 312 -64 Left 2 ;Vout2
TEXT -370 282 Left 2 !.tran 60
